!! ANSYS Input Deck Generated by HyperMesh Version  : 2021.0.0.33
!! Generated using HyperMesh-Ansys Template Version : 2021.0.0.33
/PREP7
*IF,_CDRDOFF,EQ,1,THEN     !if solid model was read in
_CDRDOFF=             !reset flag, numoffs already performed
*ELSE              !offset database for the following FE model
NUMOFF,NODE,  453744
NUMOFF,ELEM,  788055
NUMOFF,MAT,       2
NUMOFF,TYPE,       1
*ENDIF
NBLOCK,6,SOLID
(3i8,6e16.9)
  272161       0       0 -0.074008599318         0.04592             0.4 
  272167       0       0 -0.094430471137 0.0229708052139             0.4 
  272168       0       0 -0.083940872137 0.0234342939344             0.4 
  273507       0       0 -0.076000332481 0.4694579204888 0.3720006755067 
  273516       0       0 -0.084000332481 0.4492605919104 0.3720006755067 
  273520       0       0 -0.084000332481 0.4694579204888 0.3720006755067 
  273521       0       0 -0.094500332481 0.4593592561996 0.3720006755067 
  273881       0       0 -0.076000332481 0.4492605919104 0.3720006755067 
  273898       0       0 -0.076000332481 0.4593592561996 0.3720006755067 
  273910       0       0 -0.094500332481 0.4492605919104 0.3720006755067 
  273911       0       0 -0.094500332481 0.4694579204888 0.3720006755067 
  273913       0       0 -0.084000332481 0.4593592561996 0.3720006755067 
  278430       0       0 -0.084000332481         0.04592             0.4 
  278443       0       0  -0.09450016624         0.04592             0.4 
  289001       0       0 -0.094465318689  0.034445402607             0.4 
  289045       0       0 -0.083970602309 0.0346771469672             0.4 
  291450       0       0 -0.073983738889 0.0348976769168             0.4 
  292367       0       0  -0.07395887846 0.0238753538336             0.4 
  440474       0       0 0.1397854237883 0.2608140349602 0.3840000282742 
  440461       0       0 0.1397854237883 0.2508140349602 0.3840000282742 
! ... 5788 like lines cut
N,R5.3,LOC,     -1,
!!HMNAME MAT 
!!         2 "45#steel"
MPTEMP,1,             0.0
MP,DENS,2,          7850.0
MP,EX  ,2,  200000000000.0
MP,NUXY,2,             0.3
!!HMNAME ET 
!!         1 "ET_1"
ET,1,45
KEYOPT,1,1,1
KEYOPT,1,2,0
KEYOPT,1,5,2
!!HMNAME COMP 
!!   1-2-0 225 "Oil tank"
!!HWCOLOR COMP 
!!   1-2-0 60
TYPE, 1  $ MAT, 2  $ REAL, 0
EBLOCK,19,SOLID,        
(19i8)
       2       1       0       0       0       0       0       0       8       0  780874  447686  447685  447712  447713  447759  447762  447761  447760
       2       1       0       0       0       0       0       0       8       0  780875  447685  447684  447711  447712  447762  447764  447763  447761
       2       1       0       0       0       0       0       0       8       0  780876  447759  447762  447761  447760  447765  447768  447767  447766
       2       1       0       0       0       0       0       0       8       0  780877  447762  447764  447763  447761  447768  447770  447769  447767
       2       1       0       0       0       0       0       0       8       0  780878  447765  447768  447767  447766  447771  447774  447773  447772
       2       1       0       0       0       0       0       0       8       0  780879  447768  447770  447769  447767  447774  447776  447775  447773
       2       1       0       0       0       0       0       0       8       0  780880  447771  447774  447773  447772  447777  447780  447779  447778
       2       1       0       0       0       0       0       0       8       0  780881  447774  447776  447775  447773  447780  447782  447781  447779
       2       1       0       0       0       0       0       0       8       0  780882  447777  447780  447779  447778  447783  447786  447785  447784
       2       1       0       0       0       0       0       0       8       0  780883  447780  447782  447781  447779  447786  447788  447787  447785
       2       1       0       0       0       0       0       0       8       0  780884  447783  447786  447785  447784  447789  447792  447791  447790
       2       1       0       0       0       0       0       0       8       0  780885  447786  447788  447787  447785  447792  447794  447793  447791
       2       1       0       0       0       0       0       0       8       0  780886  447789  447792  447791  447790  447795  447798  447797  447796
       2       1       0       0       0       0       0       0       8       0  780887  447792  447794  447793  447791  447798  447800  447799  447797
       2       1       0       0       0       0       0       0       8       0  780888  447795  447798  447797  447796  447801  447804  447803  447802
       2       1       0       0       0       0       0       0       8       0  780889  447798  447800  447799  447797  447804  447806  447805  447803
       2       1       0       0       0       0       0       0       8       0  780890  447801  447804  447803  447802  447807  447810  447809  447808
       2       1       0       0       0       0       0       0       8       0  780891  447804  447806  447805  447803  447810  447812  447811  447809
       2       1       0       0       0       0       0       0       8       0  780892  447807  447810  447809  447808  447813  447816  447815  447814
       2       1       0       0       0       0       0       0       8       0  780893  447810  447812  447811  447809  447816  447818  447817  447815
! ... 2857 like lines cut
CM, Oil tank, ELEM
ESEL, NONE
ESEL, ALL
CMBLOCK,yueshu,NODE,27
(8i10)
    272161    272167   -272168    273507    273516    273520   -273521    273881
    273898    273910   -273911    273913    278430    278443    289001    289045
    291450    292367    439933    440077    440090    440125    440269    440282
    440317    440461    440474
CMBLOCK,load,NODE,21
(8i10)
    451597    451599    451601    451603    451605    451607    451609    451809
    451811    451813    451815    451817    451819    451821    453346    453348
    453350    453352    453354    453356    453358

!! Loadstep Data 

!! Load Data (all loads and boundary conditions).
FINISH
