!! ANSYS Input Deck Generated by HyperMesh Version  : 2021.0.0.33
!! Generated using HyperMesh-Ansys Template Version : 2021.0.0.33
/PREP7
*IF,_CDRDOFF,EQ,1,THEN     !if solid model was read in
_CDRDOFF=             !reset flag, numoffs already performed
*ELSE              !offset database for the following FE model
NUMOFF,NODE,    1836
NUMOFF,ELEM,    1275
NUMOFF,MAT,       1
NUMOFF,TYPE,       1
*ENDIF
NBLOCK,6,SOLID
(3i8,6e16.9)
       1       0       0             0.0           -0.05           -0.05 
       2       0       0             0.0           -0.05           -0.03 
       3       0       0             0.0           -0.05           -0.01 
       4       0       0             0.0           -0.05            0.01 
       5       0       0             0.0           -0.05            0.03 
       6       0       0             0.0           -0.05            0.05 
       7       0       0             0.0           -0.03            0.05 
       8       0       0             0.0           -0.01            0.05 
       9       0       0             0.0            0.01            0.05 
      10       0       0             0.0            0.03            0.05 
      11       0       0             0.0            0.05            0.05 
      12       0       0             0.0            0.05            0.03 
      13       0       0             0.0            0.05            0.01 
      14       0       0             0.0            0.05           -0.01 
      15       0       0             0.0            0.05           -0.03 
      16       0       0             0.0            0.05           -0.05 
      17       0       0             0.0            0.03           -0.05 
      18       0       0             0.0            0.01           -0.05 
      19       0       0             0.0           -0.01           -0.05 
      20       0       0             0.0           -0.03           -0.05 
! ... 1816 like lines cut
N,R5.3,LOC,     -1,
!!HMNAME MAT 
!!         1 "MAT1"
MPTEMP,1,             0.0
MP,DENS,1,          7800.0
MP,EX  ,1,  200000000000.0
MP,PRXY,1,             0.3
!!HMNAME ET 
!!         1 "ET_1"
ET,1,45
KEYOPT,1,1,1
KEYOPT,1,2,0
!!HMNAME COMP 
!!   1-1-0 2 "auto2"
!!HWCOLOR COMP 
!!   1-1-0 4
TYPE, 1  $ MAT, 1  $ REAL, 0
EBLOCK,19,SOLID,        
(19i8)
       1       1       0       0       0       0       0      0        8       0      26      22      21      26      25      37      40      39      38
       1       1       0       0       0       0       0      0        8       0      27      21      13      12      26      40      42      41      39
       1       1       0       0       0       0       0      0        8       0      28      25      26      10       9      38      39      44      43
       1       1       0       0       0       0       0      0        8       0      29      26      12      11      10      39      41      45      44
       1       1       0       0       0       0       0      0        8       0      30      23      22      25      27      46      37      38      47
       1       1       0       0       0       0       0      0        8       0      31      27      25       9       8      47      38      43      48
       1       1       0       0       0       0       0      0        8       0      32       4      24      28       5      49      52      51      50
       1       1       0       0       0       0       0      0        8       0      33      24      23      27      28      52      46      47      51
       1       1       0       0       0       0       0      0        8       0      34       5      28       7       6      50      51      54      53
       1       1       0       0       0       0       0      0        8       0      35      28      27       8       7      51      47      48      54
       1       1       0       0       0       0       0      0        8       0      36      18      17      31      29      55      58      57      56
       1       1       0       0       0       0       0      0        8       0      37      17      16      15      31      58      60      59      57
       1       1       0       0       0       0       0      0        8       0      38      21      22      30      32      40      37      62      61
       1       1       0       0       0       0       0      0        8       0      39      32      30      29      31      61      62      56      57
       1       1       0       0       0       0       0      0        8       0      40      13      21      32      14      42      40      61      63
       1       1       0       0       0       0       0      0        8       0      41      14      32      31      15      63      61      57      59
       1       1       0       0       0       0       0      0        8       0      42      19      18      29      33      64      55      56      65
       1       1       0       0       0       0       0      0        8       0      43      33      29      30      34      65      56      62      66
       1       1       0       0       0       0       0      0        8       0      44      34      30      22      23      66      62      37      46
       1       1       0       0       0       0       0      0        8       0      45       1      20      35       2      67      70      69      68
! ... 1231 like lines cut
CM, auto2, ELEM
ESEL, NONE
ESEL, ALL
CMBLOCK,load,NODE,20
(8i10)
      1699     -1701      1704      1709     -1710      1735     -1737      1740
      1745     -1746      1771     -1773      1776      1781     -1782      1807
     -1809      1812      1817     -1818
CMBLOCK,resp,NODE,4
(8i10)
       512       727       948      1206
CMBLOCK,yueshu,NODE,2
(8i10)
         1       -36

!! Loadstep Data 

!! Load Data (all loads and boundary conditions).
FINISH
